test/TEST190523/v_h26.csv
Bus, BasekV, Node1, Magnitude1, Angle1, pu1, Node2, Magnitude2, Angle2, pu2, Node3, Magnitude3, Angle3, pu3
"SOURCEBUS", 69, 1,    41834.3,   -0.1,    1.0501, 2,    41826.6, -120.2,    1.0499, 3,    41810.4,  119.9,    1.0495
"BUSMVMAI1", 12.8, 1,    7763.53,  -30.4,    1.0505, 2,    7765.92, -150.5,    1.0509, 3,    7753.34,   89.4,    1.0492
"BUSMVMAI136", 12.505, 1,    7763.53,  -30.4,    1.0753, 2,    7765.89, -150.5,    1.0756, 3,     7753.3,   89.4,    1.0739
"BUSMVMAI3", 12.505, 1,     7761.9,  -30.8,    1.0751, 2,     7743.2, -150.8,    1.0725, 3,     7721.6,   88.8,    1.0695
"BUSMVMAI2", 12.505, 1,     7761.9,  -30.8,    1.0751, 2,    7743.13, -150.8,    1.0725, 3,    7721.51,   88.8,    1.0695
"BUSMVMAI4", 12.505, 1,    7761.86,  -30.8,     1.075, 2,    7742.49, -150.8,    1.0724, 3,    7720.63,   88.8,    1.0693
"BUSMVMAI46", 12.505, 1,    7761.91,  -30.8,    1.0751, 2,    7743.22, -150.8,    1.0725, 3,    7721.64,   88.8,    1.0695
"BUSMVMAI5", 12.505, 1,    7761.57,  -30.8,     1.075, 2,    7741.66, -150.8,    1.0723, 3,    7719.55,   88.8,    1.0692
"BUSMVMAI862", 12.505, 1,    7761.85,  -30.8,     1.075, 0, 0, 0, 0, 0, 0, 0, 0
"BUSMVMAI6", 12.505, 1,    7761.51,  -30.8,     1.075, 2,     7741.5, -150.8,    1.0722, 3,    7719.36,   88.8,    1.0692
"BUSMVMAI859", 12.505, 3,    7719.53,   88.8,    1.0692, 0, 0, 0, 0, 0, 0, 0, 0
"BUSMVMAI860", 12.505, 3,    7719.55,   88.8,    1.0692, 0, 0, 0, 0, 0, 0, 0, 0
"BUSMVMAI7", 12.505, 1,    7761.08,  -30.8,    1.0749, 2,    7740.79, -150.8,    1.0721, 3,    7718.46,   88.8,     1.069
"BUSMVMAI8", 12.505, 1,    7761.35,  -30.8,     1.075, 2,    7739.65, -150.8,     1.072, 3,    7717.84,   88.8,     1.069
"BUSMVMAI9", 12.505, 1,    7761.08,  -30.8,    1.0749, 2,    7740.79, -150.8,    1.0721, 3,    7718.46,   88.8,     1.069
"BUSMVMAI10", 12.505, 1,    7760.73,  -30.8,    1.0749, 2,     7740.8, -150.8,    1.0721, 3,    7718.19,   88.8,     1.069
"BUSMVMAI56", 12.505, 1,     7760.9,  -30.8,    1.0749, 2,     7740.8, -150.8,    1.0721, 3,    7718.33,   88.8,     1.069
"BUSMVMAI861", 12.505, 3,    7719.48,   88.8,    1.0692, 0, 0, 0, 0, 0, 0, 0, 0
"BUSMVMAI12", 12.505, 1,    7761.57,  -30.8,     1.075, 2,    7738.72, -150.8,    1.0718, 3,    7717.34,   88.8,    1.0689
"BUSMVMAI51", 12.505, 1,    7761.35,  -30.8,     1.075, 2,    7739.65, -150.8,     1.072, 3,    7717.84,   88.8,     1.069
"BUSMVMAI2171", 12.505, 1,    7761.35,  -30.8,     1.075, 0, 0, 0, 0, 0, 0, 0, 0
"BUSMVMAI863", 12.505, 3,    7719.45,   88.8,    1.0692, 0, 0, 0, 0, 0, 0, 0, 0
"BUSMVMAI2165", 12.505, 3,    7718.46,   88.8,     1.069, 0, 0, 0, 0, 0, 0, 0, 0
"BUSMVMAI694", 12.505, 1,    7761.08,  -30.8,    1.0749, 2,    7740.79, -150.8,    1.0721, 3,    7718.46,   88.8,     1.069
"BUSMVMAI122", 12.505, 1,    7760.71,  -30.8,    1.0749, 2,    7740.81, -150.8,    1.0721, 3,    7718.18,   88.8,     1.069
"BUSMVMAI11", 12.505, 1,    7761.57,  -30.8,     1.075, 2,    7738.72, -150.8,    1.0718, 3,    7717.34,   88.8,    1.0689
"BUSMVMAI13", 12.505, 1,    7761.57,  -30.8,     1.075, 2,     7738.7, -150.8,    1.0718, 3,    7717.34,   88.8,    1.0689
"BUSMVMAI18", 12.505, 1,    7761.66,  -30.8,     1.075, 2,    7738.38, -150.8,    1.0718, 3,    7717.14,   88.8,    1.0689
"BUSMVMAI14", 12.505, 1,    7761.57,  -30.8,     1.075, 2,    7738.67, -150.8,    1.0718, 3,    7717.34,   88.8,    1.0689
"BUSMVMAI15", 12.505, 1,    7761.57,  -30.8,     1.075, 2,    7738.64, -150.8,    1.0718, 3,    7717.35,   88.8,    1.0689
"BUSMVMAI16", 12.505, 1,    7761.57,  -30.8,     1.075, 2,    7738.64, -150.8,    1.0718, 3,    7717.35,   88.8,    1.0689
"BUSMVMAI2166", 12.505, 2,    7738.64, -150.8,    1.0718, 0, 0, 0, 0, 0, 0, 0, 0
"BUSMVMAI2172", 12.505, 1,    7761.85,  -30.8,     1.075, 0, 0, 0, 0, 0, 0, 0, 0
"BUSMVMAI864", 12.505, 3,    7719.42,   88.8,    1.0692, 0, 0, 0, 0, 0, 0, 0, 0
"BUSMVMAI865", 12.505, 3,    7719.39,   88.8,    1.0692, 0, 0, 0, 0, 0, 0, 0, 0
"BUSMVMAI17", 12.505, 1,    7761.57,  -30.8,     1.075, 2,    7738.64, -150.8,    1.0718, 3,    7717.35,   88.8,    1.0689
"BUSMVMAI695", 12.505, 1,    7761.57,  -30.8,     1.075, 2,    7738.64, -150.8,    1.0718, 3,    7717.34,   88.8,    1.0689
"BUSMVMAI866", 12.505, 3,    7719.39,   88.8,    1.0692, 0, 0, 0, 0, 0, 0, 0, 0
"BUSMVMAI2176", 12.505, 3,    7719.39,   88.8,    1.0692, 0, 0, 0, 0, 0, 0, 0, 0
"BUSMVMAI2177", 12.505, 3,    7719.38,   88.8,    1.0692, 0, 0, 0, 0, 0, 0, 0, 0
"BUSMVMAI2178", 12.505, 3,    7719.36,   88.8,    1.0692, 0, 0, 0, 0, 0, 0, 0, 0
"BUSMVMAI19", 12.505, 1,    7761.82,  -30.8,     1.075, 2,    7737.77, -150.8,    1.0717, 3,     7716.8,   88.7,    1.0688
"BUSMVMAI20", 12.505, 1,    7762.05,  -30.8,    1.0751, 2,     7736.9, -150.8,    1.0716, 3,    7716.31,   88.7,    1.0687
"BUSMVMAI53", 12.505, 1,    7761.82,  -30.8,     1.075, 2,    7737.77, -150.8,    1.0717, 3,     7716.8,   88.7,    1.0688
"BUSMVMAI21", 12.505, 1,    7762.29,  -30.9,    1.0751, 2,    7735.98, -150.8,    1.0715, 3,    7715.81,   88.7,    1.0687
"BUSMVMAI22", 12.505, 1,    7762.58,  -30.9,    1.0751, 2,    7734.91, -150.8,    1.0713, 3,    7715.22,   88.7,    1.0686
"BUSMVMAI23", 12.505, 1,    7762.29,  -30.9,    1.0751, 2,    7735.99, -150.8,    1.0715, 3,     7715.8,   88.7,    1.0687
"BUSMVMAI25", 12.505, 1,    7762.86,  -30.9,    1.0752, 2,    7733.81, -150.8,    1.0712, 3,    7714.63,   88.7,    1.0685
"BUSMVMAI52", 12.505, 1,    7762.58,  -30.9,    1.0751, 2,    7734.91, -150.8,    1.0713, 3,    7715.22,   88.7,    1.0686
"BUSMVMAI54", 12.505, 1,    7762.58,  -30.9,    1.0751, 2,    7734.91, -150.8,    1.0713, 3,    7715.22,   88.7,    1.0686
"BUSMVMAI55", 12.505, 1,    7762.58,  -30.9,    1.0751, 2,    7734.91, -150.8,    1.0713, 3,    7715.22,   88.7,    1.0686
"BUSMVMAI696", 12.505, 1,    7762.29,  -30.9,    1.0751, 2,    7735.99, -150.8,    1.0715, 3,     7715.8,   88.7,    1.0687
"BUSMVMAI24", 12.505, 1,    7762.89,  -30.9,    1.0752, 2,     7733.7, -150.8,    1.0711, 3,    7714.57,   88.7,    1.0685
"BUSMVMAI26", 12.505, 1,    7763.17,  -30.9,    1.0752, 2,     7732.6, -150.8,     1.071, 3,    7713.98,   88.7,    1.0684
"BUSMVMAI49", 12.505, 1,    7762.86,  -30.9,    1.0752, 2,    7733.81, -150.8,    1.0712, 3,    7714.63,   88.7,    1.0685
"BUSMVMAI50", 12.505, 1,    7762.86,  -30.9,    1.0752, 2,    7733.81, -150.8,    1.0712, 3,    7714.62,   88.7,    1.0685
"BUSMVMAI27", 12.505, 1,    7763.17,  -30.9,    1.0752, 2,     7732.6, -150.8,     1.071, 3,    7713.98,   88.7,    1.0684
"BUSMVMAI28", 12.505, 1,     7763.4,  -30.9,    1.0753, 2,    7731.75, -150.8,    1.0709, 3,    7713.54,   88.7,    1.0684
"BUSMVMAI29", 12.505, 1,    7763.16,  -30.9,    1.0752, 2,    7732.61, -150.8,     1.071, 3,    7713.97,   88.7,    1.0684
"BUSMVMAI31", 12.505, 1,    7763.65,  -30.9,    1.0753, 2,    7730.76, -150.8,    1.0707, 3,    7713.02,   88.6,    1.0683
"BUSMVMAI30", 12.505, 1,    7763.15,  -30.9,    1.0752, 2,    7732.61, -150.8,     1.071, 3,    7713.96,   88.7,    1.0684
"BUSMVMAI34", 12.505, 1,    7763.14,  -30.9,    1.0752, 2,    7732.62, -150.8,     1.071, 3,    7713.95,   88.7,    1.0684
"BUSMVMAI867", 12.505, 1,    7763.63,  -30.9,    1.0753, 0, 0, 0, 0, 0, 0, 0, 0
"BUSMVMAI43", 12.505, 1,    7763.66,  -30.9,    1.0753, 2,    7730.74, -150.8,    1.0707, 3,    7713.01,   88.6,    1.0683
"BUSMVMAI871", 12.505, 2,    7730.76, -150.8,    1.0707, 0, 0, 0, 0, 0, 0, 0, 0
"BUSMVMAI33", 12.505, 1,    7763.74,  -30.9,    1.0753, 2,    7730.46, -150.8,    1.0707, 3,    7712.87,   88.6,    1.0683
"BUSMVMAI32", 12.505, 1,    7763.97,  -30.9,    1.0753, 2,    7729.61, -150.8,    1.0706, 3,    7712.44,   88.6,    1.0682
"BUSMVMAI37", 12.505, 1,    7764.28,  -30.9,    1.0754, 2,    7728.45, -150.8,    1.0704, 3,    7711.86,   88.6,    1.0681
"BUSMVMAI44", 12.505, 1,    7763.67,  -30.9,    1.0753, 2,    7730.72, -150.8,    1.0707, 3,       7713,   88.6,    1.0683
"BUSMVMAI35", 12.505, 1,    7763.14,  -30.9,    1.0752, 2,    7732.62, -150.8,     1.071, 3,    7713.95,   88.7,    1.0684
"BUSMVMAI36", 12.505, 1,    7763.15,  -30.9,    1.0752, 2,    7732.62, -150.8,     1.071, 3,    7713.94,   88.7,    1.0684
"BUSMVMAI869", 12.505, 1,    7763.63,  -30.9,    1.0753, 0, 0, 0, 0, 0, 0, 0, 0
"BUSMVMAI38", 12.505, 1,    7764.53,  -30.9,    1.0754, 2,    7727.53, -150.9,    1.0703, 3,    7711.41,   88.6,    1.0681
"BUSMVMAI2181", 12.505, 1,    7764.27,  -30.9,    1.0754, 0, 0, 0, 0, 0, 0, 0, 0
"BUSMVMAI868", 12.505, 1,    7763.58,  -30.9,    1.0753, 0, 0, 0, 0, 0, 0, 0, 0
"BUSMVMAI870", 12.505, 1,    7763.54,  -30.9,    1.0753, 0, 0, 0, 0, 0, 0, 0, 0
"BUSMVMAI39", 12.505, 1,    7764.54,  -30.9,    1.0754, 2,    7727.52, -150.9,    1.0703, 3,    7711.39,   88.6,    1.0681
"BUSMVMAI40", 12.505, 1,    7764.75,  -30.9,    1.0755, 2,    7726.63, -150.9,    1.0702, 3,    7710.99,   88.6,     1.068
"BUSMVMAI697", 12.505, 1,    7764.56,  -30.9,    1.0754, 2,    7727.53, -150.9,    1.0703, 3,    7711.31,   88.6,     1.068
"BUSMVMAI41", 12.505, 1,    7765.02,  -30.9,    1.0755, 2,    7725.59, -150.9,      1.07, 3,    7710.49,   88.6,    1.0679
"BUSMVMAI42", 12.505, 1,    7765.03,  -30.9,    1.0755, 2,    7725.58, -150.9,      1.07, 3,    7710.48,   88.6,    1.0679
"BUSMVMAI48", 12.505, 1,    7765.23,  -30.9,    1.0755, 2,    7724.72, -150.9,    1.0699, 3,    7710.09,   88.6,    1.0679
"BUSMVMAI303", 12.505, 1,    7765.12,  -30.9,    1.0755, 2,    7725.15, -150.9,      1.07, 3,    7710.29,   88.6,    1.0679
"BUSMVMAI45", 12.505, 1,    7765.03,  -30.9,    1.0755, 2,    7725.58, -150.9,      1.07, 3,    7710.47,   88.6,    1.0679
"BUSMVMAI701", 12.505, 1,    7765.03,  -30.9,    1.0755, 2,    7725.58, -150.9,      1.07, 3,    7710.46,   88.6,    1.0679
"BUSMVMAI47", 12.505, 1,    7761.92,  -30.8,    1.0751, 2,    7743.51, -150.8,    1.0725, 3,    7722.03,   88.8,    1.0695
"BUSMVMAI179", 12.505, 1,    7761.92,  -30.8,    1.0751, 2,    7743.36, -150.8,    1.0725, 3,    7721.83,   88.8,    1.0695
"BUSMVMAI160", 12.505, 1,    7761.97,  -30.8,    1.0751, 2,    7744.18, -150.7,    1.0726, 3,    7722.96,   88.9,    1.0697
"BUSMVMAI1103", 12.505, 1,    7765.19,  -30.9,    1.0755, 0, 0, 0, 0, 0, 0, 0, 0
"BUSMVMAI259", 12.505, 1,    7765.35,  -30.9,    1.0755, 2,    7724.28, -150.9,    1.0698, 3,    7709.91,   88.6,    1.0679
"BUSMVMAI304", 12.505, 1,    7765.23,  -30.9,    1.0755, 2,    7724.72, -150.9,    1.0699, 3,    7710.09,   88.6,    1.0679
"BUSMVMAI702", 12.505, 1,    7762.86,  -30.9,    1.0752, 2,    7733.81, -150.8,    1.0712, 3,    7714.62,   88.7,    1.0685
"BUSMVMAI58", 12.505, 1,    7760.48,  -30.8,    1.0749, 2,    7740.82, -150.8,    1.0721, 3,       7718,   88.8,     1.069
"BUSMVMAI57", 12.505, 1,    7759.64,  -30.8,    1.0747, 2,    7740.86, -150.8,    1.0721, 3,    7717.36,   88.8,    1.0689
"BUSMVMAI60", 12.505, 1,    7759.29,  -30.9,    1.0747, 2,    7740.88, -150.8,    1.0721, 3,     7717.1,   88.8,    1.0689
"BUSMVMAI703", 12.505, 1,    7759.64,  -30.8,    1.0747, 2,    7740.86, -150.8,    1.0721, 3,    7717.36,   88.8,    1.0689
"BUSMVMAI123", 12.505, 1,    7760.69,  -30.8,    1.0749, 2,    7740.81, -150.8,    1.0721, 3,    7718.16,   88.8,     1.069
"BUSMVMAI59", 12.505, 1,    7758.79,  -30.9,    1.0746, 2,    7740.92, -150.8,    1.0721, 3,    7716.82,   88.8,    1.0688
"BUSMVMAI61", 12.505, 1,    7757.97,  -30.9,    1.0745, 2,    7740.99, -150.8,    1.0722, 3,    7716.34,   88.8,    1.0687
"BUSMVMAI63", 12.505, 1,    7759.31,  -30.9,    1.0747, 2,    7740.87, -150.8,    1.0721, 3,    7717.07,   88.8,    1.0688
"BUSMVMAI874", 12.505, 3,     7717.1,   88.8,    1.0689, 0, 0, 0, 0, 0, 0, 0, 0
"BUSMVMAI62", 12.505, 1,    7757.15,  -30.9,    1.0744, 2,    7741.03, -150.8,    1.0722, 3,    7715.85,   88.8,    1.0687
"BUSMVMAI64", 12.505, 1,    7756.25,  -30.9,    1.0743, 2,     7741.1, -150.8,    1.0722, 3,    7715.48,   88.8,    1.0686
"BUSMVMAI942", 12.505, 3,    7715.85,   88.8,    1.0687, 0, 0, 0, 0, 0, 0, 0, 0
"BUSMVMAI873", 12.505, 3,    7715.84,   88.8,    1.0687, 0, 0, 0, 0, 0, 0, 0, 0
"BUSMVMAI872", 12.505, 3,    7715.66,   88.8,    1.0687, 0, 0, 0, 0, 0, 0, 0, 0
"BUSMVMAI880", 12.505, 3,    7715.65,   88.8,    1.0686, 0, 0, 0, 0, 0, 0, 0, 0
"BUSMVMAI945", 12.505, 3,    7717.06,   88.8,    1.0688, 0, 0, 0, 0, 0, 0, 0, 0
"BUSMVMAI65", 12.505, 1,    7755.31,  -30.9,    1.0741, 2,    7741.14, -150.8,    1.0722, 3,    7715.09,   88.8,    1.0686
"BUSMVMAI66", 12.505, 1,    7754.36,  -30.9,     1.074, 2,    7741.18, -150.8,    1.0722, 3,    7714.69,   88.8,    1.0685
"BUSMVMAI67", 12.505, 1,    7753.34,  -30.9,    1.0739, 2,    7741.23, -150.8,    1.0722, 3,    7714.26,   88.8,    1.0685
"BUSMVMAI878", 12.505, 1,    7753.29,  -30.9,    1.0739, 0, 0, 0, 0, 0, 0, 0, 0
"BUSMVMAI68", 12.505, 1,    7752.59,  -30.9,    1.0738, 2,    7741.24, -150.8,    1.0722, 3,    7713.94,   88.8,    1.0684
"BUSMVMAI706", 12.505, 1,    7753.34,  -30.9,    1.0739, 2,    7741.23, -150.8,    1.0722, 3,    7714.25,   88.8,    1.0685
"BUSMVMAI876", 12.505, 3,    7717.06,   88.8,    1.0688, 0, 0, 0, 0, 0, 0, 0, 0
"BUSMVMAI875", 12.505, 3,    7716.93,   88.8,    1.0688, 0, 0, 0, 0, 0, 0, 0, 0
"BUSMVMAI877", 12.505, 3,    7716.89,   88.8,    1.0688, 0, 0, 0, 0, 0, 0, 0, 0
"BUSMVMAI883", 12.505, 3,    7716.79,   88.8,    1.0688, 0, 0, 0, 0, 0, 0, 0, 0
"BUSMVMAI884", 12.505, 3,    7716.88,   88.8,    1.0688, 0, 0, 0, 0, 0, 0, 0, 0
"BUSMVMAI886", 12.505, 3,    7716.88,   88.8,    1.0688, 0, 0, 0, 0, 0, 0, 0, 0
"BUSMVMAI885", 12.505, 1,    7753.21,  -30.9,    1.0739, 0, 0, 0, 0, 0, 0, 0, 0
"BUSMVMAI879", 12.505, 3,     7715.4,   88.8,    1.0686, 0, 0, 0, 0, 0, 0, 0, 0
"BUSMVMAI881", 12.505, 3,    7715.36,   88.8,    1.0686, 0, 0, 0, 0, 0, 0, 0, 0
"BUSMVMAI888", 12.505, 3,    7715.35,   88.8,    1.0686, 0, 0, 0, 0, 0, 0, 0, 0
"BUSMVMAI882", 12.505, 3,    7715.34,   88.8,    1.0686, 0, 0, 0, 0, 0, 0, 0, 0
"BUSMVMAI944", 12.505, 3,    7715.34,   88.8,    1.0686, 0, 0, 0, 0, 0, 0, 0, 0
"BUSMVMAI889", 12.505, 3,    7716.71,   88.8,    1.0688, 0, 0, 0, 0, 0, 0, 0, 0
"BUSMVMAI2183", 12.505, 3,    7716.87,   88.8,    1.0688, 0, 0, 0, 0, 0, 0, 0, 0
"BUSMVMAI2184", 12.505, 3,    7716.88,   88.8,    1.0688, 0, 0, 0, 0, 0, 0, 0, 0
"BUSMVMAI71", 12.505, 1,    7751.86,  -30.9,    1.0737, 2,    7741.23, -150.8,    1.0722, 3,    7713.62,   88.8,    1.0684
"BUSMVMAI2182", 12.505, 1,    7753.21,  -30.9,    1.0739, 0, 0, 0, 0, 0, 0, 0, 0
"BUSMVMAI2185", 12.505, 1,    7753.21,  -30.9,    1.0739, 0, 0, 0, 0, 0, 0, 0, 0
"BUSMVMAI2186", 12.505, 1,    7753.17,  -30.9,    1.0738, 0, 0, 0, 0, 0, 0, 0, 0
"BUSMVMAI887", 12.505, 3,    7716.87,   88.8,    1.0688, 0, 0, 0, 0, 0, 0, 0, 0
"BUSMVMAI892", 12.505, 3,    7716.86,   88.8,    1.0688, 0, 0, 0, 0, 0, 0, 0, 0
"BUSMVMAI897", 12.505, 3,     7715.3,   88.8,    1.0686, 0, 0, 0, 0, 0, 0, 0, 0
"BUSMVMAI890", 12.505, 3,    7716.64,   88.8,    1.0688, 0, 0, 0, 0, 0, 0, 0, 0
"BUSMVMAI891", 12.505, 3,    7716.59,   88.8,    1.0688, 0, 0, 0, 0, 0, 0, 0, 0
"BUSMVMAI896", 12.505, 3,    7716.58,   88.8,    1.0688, 0, 0, 0, 0, 0, 0, 0, 0
"BUSMVMAI893", 12.505, 3,    7716.85,   88.8,    1.0688, 0, 0, 0, 0, 0, 0, 0, 0
"BUSMVMAI894", 12.505, 3,    7716.84,   88.8,    1.0688, 0, 0, 0, 0, 0, 0, 0, 0
"BUSMVMAI895", 12.505, 3,    7716.84,   88.8,    1.0688, 0, 0, 0, 0, 0, 0, 0, 0
"BUSMVMAI898", 12.505, 3,    7716.83,   88.8,    1.0688, 0, 0, 0, 0, 0, 0, 0, 0
"BUSMVMAI70", 12.505, 1,    7753.35,  -30.9,    1.0739, 2,    7741.23, -150.8,    1.0722, 3,    7714.23,   88.8,    1.0685
"BUSMVMAI69", 12.505, 1,    7753.35,  -30.9,    1.0739, 2,    7741.23, -150.8,    1.0722, 3,    7714.23,   88.8,    1.0685
"BUSMVMAI708", 12.505, 1,    7753.35,  -30.9,    1.0739, 2,    7741.23, -150.8,    1.0722, 3,    7714.23,   88.8,    1.0685
"BUSMVMAI72", 12.505, 1,    7750.91,  -30.9,    1.0735, 2,    7741.23, -150.8,    1.0722, 3,    7713.21,   88.8,    1.0683
"BUSMVMAI73", 12.505, 1,       7750,  -30.9,    1.0734, 2,    7741.24, -150.8,    1.0722, 3,    7712.87,   88.8,    1.0683
"BUSMVMAI134", 12.505, 1,    7750.91,  -30.9,    1.0735, 2,    7741.23, -150.8,    1.0722, 3,    7713.21,   88.8,    1.0683
"BUSMVMAI900", 12.505, 3,    7715.25,   88.8,    1.0686, 0, 0, 0, 0, 0, 0, 0, 0
"BUSMVMAI904", 12.505, 3,    7716.83,   88.8,    1.0688, 0, 0, 0, 0, 0, 0, 0, 0
"BUSMVMAI75", 12.505, 1,    7749.55,  -30.9,    1.0733, 2,    7741.28, -150.8,    1.0722, 3,     7712.7,   88.8,    1.0682
"BUSMVMAI718", 12.505, 1,       7750,  -30.9,    1.0734, 2,    7741.24, -150.8,    1.0722, 3,    7712.87,   88.8,    1.0683
"BUSMVMAI899", 12.505, 3,    7715.25,   88.8,    1.0686, 0, 0, 0, 0, 0, 0, 0, 0
"BUSMVMAI902", 12.505, 3,    7715.23,   88.8,    1.0686, 0, 0, 0, 0, 0, 0, 0, 0
"BUSMVMAI901", 12.505, 3,    7715.21,   88.8,    1.0686, 0, 0, 0, 0, 0, 0, 0, 0
"BUSMVMAI903", 12.505, 3,    7715.17,   88.8,    1.0686, 0, 0, 0, 0, 0, 0, 0, 0
"BUSMVMAI905", 12.505, 3,    7715.14,   88.8,    1.0686, 0, 0, 0, 0, 0, 0, 0, 0
"BUSMVMAI907", 12.505, 3,    7715.17,   88.8,    1.0686, 0, 0, 0, 0, 0, 0, 0, 0
"BUSMVMAI906", 12.505, 3,    7715.13,   88.8,    1.0686, 0, 0, 0, 0, 0, 0, 0, 0
"BUSMVMAI946", 12.505, 3,    7715.13,   88.8,    1.0686, 0, 0, 0, 0, 0, 0, 0, 0
"BUSMVMAI74", 12.505, 1,    7749.55,  -30.9,    1.0733, 2,    7741.28, -150.8,    1.0722, 3,     7712.7,   88.8,    1.0682
"BUSMVMAI76", 12.505, 1,    7749.47,  -30.9,    1.0733, 2,    7741.33, -150.8,    1.0722, 3,    7712.67,   88.8,    1.0682
"BUSMVMAI77", 12.505, 1,    7749.29,  -30.9,    1.0733, 2,    7741.27, -150.8,    1.0722, 3,     7712.6,   88.8,    1.0682
"BUSMVMAI79", 12.505, 1,    7749.47,  -30.9,    1.0733, 2,    7741.33, -150.8,    1.0722, 3,    7712.66,   88.8,    1.0682
"BUSMVMAI81", 12.505, 1,    7749.27,  -30.9,    1.0733, 2,    7741.21, -150.8,    1.0722, 3,    7712.63,   88.8,    1.0682
"BUSMVMAI91", 12.505, 1,    7748.62,  -30.9,    1.0732, 2,     7741.3, -150.8,    1.0722, 3,    7712.32,   88.8,    1.0682
"BUSMVMAI78", 12.505, 1,    7749.33,  -30.9,    1.0733, 2,    7741.43, -150.8,    1.0722, 3,     7712.6,   88.8,    1.0682
"BUSMVMAI80", 12.505, 1,     7749.2,  -30.9,    1.0733, 2,    7741.52, -150.8,    1.0722, 3,    7712.54,   88.8,    1.0682
"BUSMVMAI908", 12.505, 1,    7749.14,  -30.9,    1.0733, 0, 0, 0, 0, 0, 0, 0, 0
"BUSMVMAI89", 12.505, 1,    7749.15,  -30.9,    1.0733, 2,    7741.56, -150.8,    1.0722, 3,     7712.5,   88.8,    1.0682
"BUSMVMAI949", 12.505, 3,    7715.17,   88.8,    1.0686, 0, 0, 0, 0, 0, 0, 0, 0
"BUSMVMAI82", 12.505, 1,    7749.26,  -30.9,    1.0733, 2,    7741.17, -150.8,    1.0722, 3,    7712.65,   88.8,    1.0682
"BUSMVMAI83", 12.505, 1,    7749.26,  -30.9,    1.0733, 2,    7741.16, -150.8,    1.0722, 3,    7712.64,   88.8,    1.0682
"BUSMVMAI86", 12.505, 1,    7749.26,  -30.9,    1.0733, 2,    7741.15, -150.8,    1.0722, 3,    7712.64,   88.8,    1.0682
"BUSMVMAI85", 12.505, 1,    7749.98,  -30.9,    1.0734, 2,    7741.17, -150.8,    1.0722, 3,    7712.85,   88.8,    1.0683
"BUSMVMAI84", 12.505, 1,    7749.94,  -30.9,    1.0734, 2,    7741.11, -150.8,    1.0722, 3,    7712.85,   88.8,    1.0683
"BUSMVMAI93", 12.505, 1,    7749.92,  -30.9,    1.0734, 2,    7741.08, -150.8,    1.0722, 3,    7712.85,   88.8,    1.0683
"BUSMVMAI2198", 12.505, 2,    7741.11, -150.8,    1.0722, 0, 0, 0, 0, 0, 0, 0, 0
"BUSMVMAI709", 12.505, 1,       7750,  -30.9,    1.0734, 2,    7741.23, -150.8,    1.0722, 3,    7712.87,   88.8,    1.0683
"BUSMVMAI88", 12.505, 1,    7749.26,  -30.9,    1.0733, 2,    7741.14, -150.8,    1.0722, 3,    7712.63,   88.8,    1.0682
"BUSMVMAI87", 12.505, 1,    7749.26,  -30.9,    1.0733, 2,    7741.13, -150.8,    1.0722, 3,    7712.63,   88.8,    1.0682
"BUSMVMAI99", 12.505, 1,    7749.26,  -30.9,    1.0733, 2,    7741.12, -150.8,    1.0722, 3,    7712.63,   88.8,    1.0682
"BUSMVMAI722", 12.505, 1,    7749.26,  -30.9,    1.0733, 2,    7741.13, -150.8,    1.0722, 3,    7712.62,   88.8,    1.0682
"BUSMVMAI909", 12.505, 1,    7749.07,  -30.9,    1.0733, 0, 0, 0, 0, 0, 0, 0, 0
"BUSMVMAI90", 12.505, 1,    7749.12,  -30.9,    1.0733, 2,    7741.59, -150.8,    1.0722, 3,    7712.47,   88.8,    1.0682
"BUSMVMAI102", 12.505, 1,    7749.08,  -30.9,    1.0733, 2,    7741.62, -150.8,    1.0722, 3,    7712.43,   88.8,    1.0682
"BUSMVMAI92", 12.505, 1,    7748.04,  -30.9,    1.0731, 2,    7741.33, -150.8,    1.0722, 3,    7712.08,   88.8,    1.0682
"BUSMVMAI132", 12.505, 1,    7748.62,  -30.9,    1.0732, 2,     7741.3, -150.8,    1.0722, 3,    7712.32,   88.8,    1.0682
"BUSMVMAI98", 12.505, 1,    7748.04,  -30.9,    1.0731, 2,    7741.33, -150.8,    1.0722, 3,    7712.08,   88.8,    1.0682
"BUSMVMAI100", 12.505, 1,     7747.3,  -30.9,     1.073, 2,     7741.4, -150.8,    1.0722, 3,    7711.76,   88.8,    1.0681
"BUSMVMAI723", 12.505, 1,    7748.04,  -30.9,    1.0731, 2,    7741.32, -150.8,    1.0722, 3,    7712.08,   88.8,    1.0682
"BUSMVMAI96", 12.505, 1,     7749.9,  -30.9,    1.0734, 2,    7741.04, -150.8,    1.0722, 3,    7712.84,   88.8,    1.0683
"BUSMVMAI916", 12.505, 1,    7749.92,  -30.9,    1.0734, 0, 0, 0, 0, 0, 0, 0, 0
"BUSMVMAI95", 12.505, 1,    7748.04,  -30.9,    1.0731, 2,    7741.29, -150.8,    1.0722, 3,    7712.08,   88.8,    1.0682
"BUSMVMAI94", 12.505, 1,    7748.03,  -30.9,    1.0731, 2,    7741.26, -150.8,    1.0722, 3,    7712.09,   88.8,    1.0682
"BUSMVMAI112", 12.505, 1,    7748.03,  -30.9,    1.0731, 2,    7741.26, -150.8,    1.0722, 3,    7712.08,   88.8,    1.0682
"BUSMVMAI126", 12.505, 1,    7748.04,  -30.9,    1.0731, 2,    7741.29, -150.8,    1.0722, 3,    7712.08,   88.8,    1.0682
"BUSMVMAI97", 12.505, 1,    7749.88,  -30.9,    1.0734, 2,    7740.99, -150.8,    1.0722, 3,    7712.84,   88.8,    1.0683
"BUSMVMAI711", 12.505, 1,     7749.9,  -30.9,    1.0734, 2,    7741.04, -150.8,    1.0722, 3,    7712.84,   88.8,    1.0683
"BUSMVMAI915", 12.505, 1,    7749.88,  -30.9,    1.0734, 0, 0, 0, 0, 0, 0, 0, 0
...
"BUSLVMAI1", 0.20785, 1,    128.261,   88.8,    1.0688, 2,    128.277,  -91.2,     1.069, 0, 0, 0, 0
"BUSLVMAI2", 0.20785, 1,    128.147,   88.7,    1.0679, 2,     128.16,  -91.3,     1.068, 0, 0, 0, 0
"BUSLVMAI3", 0.20785, 1,    128.243,   88.8,    1.0687, 2,    128.259,  -91.2,    1.0688, 0, 0, 0, 0
"BUSLVMAI4", 0.20785, 1,     128.74,  -31.0,    1.0728, 2,    128.797,  149.0,    1.0733, 0, 0, 0, 0
"BUSLVMAI5", 0.20785, 1,    128.294, -150.9,    1.0691, 2,    128.331,   29.1,    1.0694, 0, 0, 0, 0
"BUSLVMAI6", 0.20785, 1,     128.17,   88.7,    1.0681, 2,    128.186,  -91.3,    1.0682, 0, 0, 0, 0
"BUSLVMAI7", 0.20785, 1,    128.267,   88.8,    1.0689, 2,    128.281,  -91.2,     1.069, 0, 0, 0, 0
"BUSLVMAI8", 0.20785, 1,    127.975,   88.7,    1.0665, 2,    127.993,  -91.3,    1.0666, 0, 0, 0, 0
"BUSLVMAI9", 0.20785, 1,    127.934,   88.5,    1.0661, 2,    127.948,  -91.5,    1.0662, 0, 0, 0, 0
"BUSLVMAI10", 0.20785, 1,    127.957,   88.5,    1.0663, 2,    127.971,  -91.5,    1.0664, 0, 0, 0, 0
"BUSLVMAI11", 0.20785, 1,    128.577, -150.8,    1.0715, 2,     128.59,   29.2,    1.0716, 0, 0, 0, 0
"BUSLVMAI12", 0.20785, 1,    128.555, -150.8,    1.0713, 2,    128.571,   29.2,    1.0714, 0, 0, 0, 0
"BUSLVMAI13", 0.20785, 1,    128.953,  -30.8,    1.0746, 2,    128.969,  149.2,    1.0747, 0, 0, 0, 0
"BUSLVMAI14", 0.20785, 1,    128.971,  -30.9,    1.0748, 2,    128.987,  149.1,    1.0749, 0, 0, 0, 0
"BUSLVMAI15", 0.20785, 1,    128.948,  -30.8,    1.0746, 2,    128.961,  149.1,    1.0747, 0, 0, 0, 0
"BUSLVMAI16", 0.20785, 1,    128.247,   88.8,    1.0687, 2,    128.265,  -91.2,    1.0689, 0, 0, 0, 0
"BUSLVMAI17", 0.20785, 1,    127.752,   88.5,    1.0646, 2,    127.778,  -91.5,    1.0648, 0, 0, 0, 0
"BUSLVMAI18", 0.20785, 1,    128.201,   88.7,    1.0683, 2,    128.216,  -91.3,    1.0685, 0, 0, 0, 0
"BUSLVMAI19", 0.20785, 1,    128.211,   88.7,    1.0684, 2,    128.224,  -91.3,    1.0685, 0, 0, 0, 0
"BUSLVMAI20", 0.20785, 1,    128.374, -150.8,    1.0698, 2,    128.398,   29.2,      1.07, 0, 0, 0, 0
"BUSLVMAI21", 0.20785, 1,    128.261,   88.8,    1.0688, 2,    128.277,  -91.2,     1.069, 0, 0, 0, 0
"BUSLVMAI22", 0.20785, 1,    128.905,  -30.9,    1.0742, 2,    128.959,  149.1,    1.0747, 0, 0, 0, 0
"BUSLVMAI23", 0.20785, 1,    128.238,   88.8,    1.0686, 2,    128.253,  -91.2,    1.0688, 0, 0, 0, 0
"BUSLVMAI24", 0.20785, 1,    128.239,   88.8,    1.0687, 2,    128.255,  -91.2,    1.0688, 0, 0, 0, 0
"BUSLVMAI25", 0.20785, 1,    128.226,   88.8,    1.0685, 2,    128.241,  -91.2,    1.0687, 0, 0, 0, 0
"BUSLVMAI26", 0.20785, 1,    128.534, -150.8,    1.0711, 2,    128.549,   29.2,    1.0712, 0, 0, 0, 0
"BUSLVMAI27", 0.20785, 1,    128.584, -150.8,    1.0715, 2,      128.6,   29.2,    1.0717, 0, 0, 0, 0
"BUSLVMAI28", 0.20785, 1,    128.201,   88.7,    1.0683, 2,    128.217,  -91.3,    1.0685, 0, 0, 0, 0
"BUSLVMAI29", 0.20785, 1,    127.994,   88.5,    1.0666, 2,     128.01,  -91.5,    1.0667, 0, 0, 0, 0
"BUSLVMAI30", 0.20785, 1,    128.456, -150.8,    1.0705, 2,     128.47,   29.2,    1.0706, 0, 0, 0, 0
"BUSLVMAI31", 0.20785, 1,    128.245,   88.8,    1.0687, 2,    128.261,  -91.2,    1.0688, 0, 0, 0, 0
"BUSLVMAI32", 0.20785, 1,    128.733,  -30.9,    1.0728, 2,    128.747,  149.1,    1.0729, 0, 0, 0, 0
"BUSLVMAI33", 0.20785, 1,    128.189,   88.7,    1.0682, 2,    128.202,  -91.3,    1.0684, 0, 0, 0, 0
"BUSLVMAI34", 0.20785, 1,    127.295,   88.6,    1.0608, 2,    127.352,  -91.4,    1.0613, 0, 0, 0, 0
"BUSLVMAI35", 0.20785, 1,    128.198,   88.8,    1.0683, 2,    128.212,  -91.2,    1.0684, 0, 0, 0, 0
"BUSLVMAI36", 0.20785, 1,    128.197,   88.8,    1.0683, 2,    128.211,  -91.2,    1.0684, 0, 0, 0, 0
"BUSLVMAI37", 0.20785, 1,    128.193,   88.8,    1.0683, 2,    128.209,  -91.2,    1.0684, 0, 0, 0, 0
"BUSLVMAI38", 0.20785, 1,    126.914, -151.2,    1.0576, 2,    126.931,   28.8,    1.0578, 0, 0, 0, 0
"BUSLVMAI39", 0.20785, 1,    128.487, -150.9,    1.0707, 2,      128.5,   29.1,    1.0708, 0, 0, 0, 0
"BUSLVMAI40", 0.20785, 1,    128.035,   88.7,     1.067, 2,    128.076,  -91.3,    1.0673, 0, 0, 0, 0
"BUSLVMAI41", 0.20785, 1,    128.757,  -30.9,     1.073, 2,    128.772,  149.1,    1.0731, 0, 0, 0, 0
"BUSLVMAI42", 0.20785, 1,    128.794,  -30.9,    1.0733, 2,     128.81,  149.1,    1.0734, 0, 0, 0, 0
"BUSLVMAI43", 0.20785, 1,    128.776,  -30.9,    1.0731, 2,    128.792,  149.1,    1.0733, 0, 0, 0, 0
"BUSLVMAI44", 0.20785, 1,    128.096,   88.8,    1.0675, 2,    128.124,  -91.2,    1.0677, 0, 0, 0, 0
"BUSLVMAI45", 0.20785, 1,    128.067,   88.7,    1.0672, 2,    128.081,  -91.3,    1.0673, 0, 0, 0, 0
"BUSLVMAI46", 0.20785, 1,    128.152,   88.8,    1.0679, 2,    128.167,  -91.2,    1.0681, 0, 0, 0, 0
"BUSLVMAI47", 0.20785, 1,      128.2,   88.8,    1.0683, 2,    128.214,  -91.2,    1.0685, 0, 0, 0, 0
"BUSLVMAI48", 0.20785, 1,    127.951,   88.7,    1.0663, 2,    127.966,  -91.3,    1.0664, 0, 0, 0, 0
"BUSLVMAI49", 0.20785, 1,    128.768,  -30.9,    1.0731, 2,    128.783,  149.1,    1.0732, 0, 0, 0, 0
"BUSLVMAI50", 0.20785, 1,    127.776, -151.0,    1.0648, 2,    127.871,   29.0,    1.0656, 0, 0, 0, 0
"BUSLVMAI51", 0.20785, 1,    128.445,  -31.0,    1.0704, 2,    128.462,  149.0,    1.0705, 0, 0, 0, 0
"BUSLVMAI52", 0.20785, 1,    128.206,   88.8,    1.0684, 2,     128.22,  -91.2,    1.0685, 0, 0, 0, 0
"BUSLVMAI53", 0.20785, 1,    128.192,   88.8,    1.0683, 2,    128.207,  -91.2,    1.0684, 0, 0, 0, 0
"BUSLVMAI54", 0.20785, 1,     127.82,   88.7,    1.0652, 2,    127.837,  -91.3,    1.0653, 0, 0, 0, 0
"BUSLVMAI55", 0.20785, 1,    128.789,  -30.9,    1.0732, 2,    128.805,  149.1,    1.0734, 0, 0, 0, 0
"BUSLVMAI56", 0.20785, 1,    127.972,   88.7,    1.0664, 2,    127.985,  -91.3,    1.0665, 0, 0, 0, 0
"BUSLVMAI57", 0.20785, 1,    128.139,   88.8,    1.0678, 2,    128.155,  -91.2,     1.068, 0, 0, 0, 0
"BUSLVMAI58", 0.20785, 1,    128.205,   88.8,    1.0684, 2,    128.219,  -91.2,    1.0685, 0, 0, 0, 0
"BUSLVMAI59", 0.20785, 1,    128.768,  -30.9,    1.0731, 2,    128.783,  149.1,    1.0732, 0, 0, 0, 0
"BUSLVMAI60", 0.20785, 1,    128.764,  -30.9,     1.073, 2,    128.778,  149.1,    1.0731, 0, 0, 0, 0
"BUSLVMAI61", 0.20785, 1,    128.395,  -31.1,      1.07, 2,    128.411,  148.9,    1.0701, 0, 0, 0, 0
"BUSLVMAI62", 0.20785, 1,    128.561, -150.8,    1.0713, 2,    128.575,   29.2,    1.0715, 0, 0, 0, 0
"BUSLVMAI63", 0.20785, 1,    128.522,  -31.0,     1.071, 2,    128.542,  149.0,    1.0712, 0, 0, 0, 0
"BUSLVMAI64", 0.20785, 1,     128.53, -150.8,    1.0711, 2,    128.543,   29.2,    1.0712, 0, 0, 0, 0
"BUSLVMAI65", 0.20785, 1,    128.759,  -30.9,     1.073, 2,    128.773,  149.1,    1.0731, 0, 0, 0, 0
"BUSLVMAI66", 0.20785, 1,    128.197,   88.8,    1.0683, 2,    128.211,  -91.2,    1.0684, 0, 0, 0, 0
"BUSLVMAI67", 0.20785, 1,    128.616,  -31.0,    1.0718, 2,    128.632,  149.0,    1.0719, 0, 0, 0, 0
"BUSLVMAI68", 0.20785, 1,    128.537,  -31.0,    1.0711, 2,     128.55,  149.0,    1.0712, 0, 0, 0, 0
"BUSLVMAI69", 0.20785, 1,      128.2,   88.8,    1.0683, 2,    128.214,  -91.2,    1.0684, 0, 0, 0, 0
"BUSLVMAI70", 0.20785, 1,    128.025,   88.7,    1.0669, 2,    128.048,  -91.3,    1.0671, 0, 0, 0, 0
"BUSLVMAI71", 0.20785, 1,    128.306,  -31.1,    1.0692, 2,     128.32,  148.9,    1.0693, 0, 0, 0, 0
"BUSLVMAI72", 0.20785, 1,    128.723,  -30.9,    1.0727, 2,    128.736,  149.1,    1.0728, 0, 0, 0, 0
"BUSLVMAI73", 0.20785, 1,    128.656,  -31.0,    1.0721, 2,    128.669,  149.0,    1.0722, 0, 0, 0, 0
"BUSLVMAI74", 0.20785, 1,    128.767,  -30.9,    1.0731, 2,    128.783,  149.1,    1.0732, 0, 0, 0, 0
"BUSLVMAI75", 0.20785, 1,    128.374, -150.9,    1.0698, 2,    128.388,   29.1,    1.0699, 0, 0, 0, 0
"BUSLVMAI76", 0.20785, 1,    128.198,   88.8,    1.0683, 2,    128.211,  -91.2,    1.0684, 0, 0, 0, 0
"BUSLVMAI77", 0.20785, 1,    128.522,  -31.0,     1.071, 2,    128.536,  149.0,    1.0711, 0, 0, 0, 0
"BUSLVMAI78", 0.20785, 1,    128.741,  -30.9,    1.0728, 2,    128.754,  149.1,     1.073, 0, 0, 0, 0
"BUSLVMAI79", 0.20785, 1,    128.145,   88.8,    1.0679, 2,    128.159,  -91.2,     1.068, 0, 0, 0, 0
"BUSLVMAI80", 0.20785, 1,    127.638,   88.5,    1.0637, 2,     127.66,  -91.5,    1.0638, 0, 0, 0, 0
"BUSLVMAI81", 0.20785, 1,    128.197,   88.8,    1.0683, 2,    128.211,  -91.2,    1.0684, 0, 0, 0, 0
"BUSLVMAI82", 0.20785, 1,    128.141,   88.8,    1.0678, 2,    128.157,  -91.2,     1.068, 0, 0, 0, 0
"BUSLVMAI83", 0.20785, 1,    128.603,  -31.0,    1.0717, 2,    128.621,  149.0,    1.0718, 0, 0, 0, 0
"BUSLVMAI84", 0.20785, 1,    128.012,   88.7,    1.0668, 2,    128.027,  -91.3,    1.0669, 0, 0, 0, 0
"BUSLVMAI85", 0.20785, 1,    128.587, -150.8,    1.0716, 2,    128.604,   29.2,    1.0717, 0, 0, 0, 0
"BUSLVMAI86", 0.20785, 1,    128.633,  -31.0,    1.0719, 2,    128.656,  149.0,    1.0721, 0, 0, 0, 0
"BUSLVMAI87", 0.20785, 1,    128.785,  -30.9,    1.0732, 2,    128.808,  149.1,    1.0734, 0, 0, 0, 0
"BUSLVMAI88", 0.20785, 1,    128.226,   88.8,    1.0685, 2,    128.239,  -91.2,    1.0687, 0, 0, 0, 0
"BUSLVMAI89", 0.20785, 1,    128.198,   88.8,    1.0683, 2,    128.211,  -91.2,    1.0684, 0, 0, 0, 0
"BUSLVMAI90", 0.20785, 1,    127.954,   88.7,    1.0663, 2,     127.97,  -91.3,    1.0664, 0, 0, 0, 0
"BUSLVMAI91", 0.20785, 1,    128.199,   88.8,    1.0683, 2,    128.215,  -91.2,    1.0685, 0, 0, 0, 0
"BUSLVMAI92", 0.20785, 1,    128.587,  -31.0,    1.0716, 2,    128.602,  149.0,    1.0717, 0, 0, 0, 0
"BUSLVMAI93", 0.20785, 1,    128.061,   88.8,    1.0672, 2,    128.077,  -91.2,    1.0673, 0, 0, 0, 0
"BUSLVMAI94", 0.20785, 1,        128,   88.7,    1.0667, 2,    128.014,  -91.3,    1.0668, 0, 0, 0, 0
"BUSLVMAI95", 0.20785, 1,    128.139,   88.8,    1.0678, 2,    128.154,  -91.2,     1.068, 0, 0, 0, 0
"BUSLVMAI96", 0.20785, 1,    128.187,   88.8,    1.0682, 2,    128.201,  -91.2,    1.0683, 0, 0, 0, 0
"BUSLVMAI97", 0.20785, 1,    128.621, -150.8,    1.0718, 2,    128.637,   29.2,     1.072, 0, 0, 0, 0
"BUSLVMAI98", 0.20785, 1,    128.621, -150.8,    1.0718, 2,    128.637,   29.2,     1.072, 0, 0, 0, 0
"BUSLVMAI99", 0.20785, 1,    128.192,   88.8,    1.0683, 2,    128.206,  -91.2,    1.0684, 0, 0, 0, 0
"BUSLVMAI100", 0.20785, 1,    128.203,   88.8,    1.0684, 2,    128.218,  -91.2,    1.0685, 0, 0, 0, 0
"BUSLVMAI101", 0.20785, 1,    128.136,   88.8,    1.0678, 2,    128.152,  -91.2,    1.0679, 0, 0, 0, 0
"BUSLVMAI102", 0.20785, 1,    128.194,   88.8,    1.0683, 2,     128.21,  -91.2,    1.0684, 0, 0, 0, 0
"BUSLVMAI103", 0.20785, 1,    128.125,   88.8,    1.0677, 2,    128.141,  -91.2,    1.0678, 0, 0, 0, 0
"BUSLVMAI104", 0.20785, 1,    128.115,   88.8,    1.0676, 2,     128.13,  -91.2,    1.0677, 0, 0, 0, 0
"BUSLVMAI105", 0.20785, 1,    128.059,   88.8,    1.0672, 2,    128.073,  -91.3,    1.0673, 0, 0, 0, 0
"BUSLVMAI106", 0.20785, 1,    128.744,  -30.9,    1.0729, 2,    128.757,  149.1,     1.073, 0, 0, 0, 0
"BUSLVMAI107", 0.20785, 1,    128.199,   88.8,    1.0683, 2,    128.214,  -91.2,    1.0684, 0, 0, 0, 0
"BUSLVMAI108", 0.20785, 1,     128.15,   88.8,    1.0679, 2,    128.165,  -91.2,     1.068, 0, 0, 0, 0
"BUSLVMAI109", 0.20785, 1,    128.367,  -31.0,    1.0697, 2,    128.428,  149.0,    1.0702, 0, 0, 0, 0
"BUSLVMAI110", 0.20785, 1,    128.525,  -31.0,     1.071, 2,     128.54,  149.0,    1.0712, 0, 0, 0, 0
"BUSLVMAI111", 0.20785, 1,    128.605,  -31.0,    1.0717, 2,    128.621,  149.0,    1.0718, 0, 0, 0, 0
"BUSLVMAI112", 0.20785, 1,    128.684,  -30.9,    1.0724, 2,    128.701,  149.1,    1.0725, 0, 0, 0, 0
"BUSLVMAI113", 0.20785, 1,     128.59, -150.8,    1.0716, 2,    128.605,   29.2,    1.0717, 0, 0, 0, 0
"BUSLVMAI114", 0.20785, 1,    127.828,  -31.3,    1.0652, 2,    127.843,  148.7,    1.0654, 0, 0, 0, 0
"BUSLVMAI115", 0.20785, 1,    128.607,  -31.0,    1.0717, 2,    128.621,  149.0,    1.0718, 0, 0, 0, 0
"BUSLVMAI116", 0.20785, 1,    128.121,   88.8,    1.0677, 2,    128.134,  -91.2,    1.0678, 0, 0, 0, 0
"BUSLVMAI117", 0.20785, 1,    128.419,  -31.1,    1.0702, 2,     128.44,  148.9,    1.0703, 0, 0, 0, 0
"BUSLVMAI118", 0.20785, 1,    128.455,  -31.0,    1.0705, 2,    128.471,  149.0,    1.0706, 0, 0, 0, 0
"BUSLVMAI119", 0.20785, 1,    127.984,   88.7,    1.0665, 2,    127.997,  -91.3,    1.0666, 0, 0, 0, 0
"BUSLVMAI120", 0.20785, 1,    128.606,  -31.0,    1.0717, 2,     128.62,  149.0,    1.0718, 0, 0, 0, 0
"BUSLVMAI121", 0.20785, 1,    128.641, -150.8,     1.072, 2,    128.657,   29.2,    1.0721, 0, 0, 0, 0
"BUSLVMAI122", 0.20785, 1,    128.109,   88.8,    1.0676, 2,    128.125,  -91.2,    1.0677, 0, 0, 0, 0
"BUSLVMAI123", 0.20785, 1,    128.639, -150.8,     1.072, 2,    128.653,   29.2,    1.0721, 0, 0, 0, 0
"BUSLVMAI124", 0.20785, 1,    127.814,   88.7,    1.0651, 2,    127.853,  -91.3,    1.0654, 0, 0, 0, 0
"BUSLVMAI125", 0.20785, 1,    127.781,   88.7,    1.0648, 2,    127.797,  -91.3,     1.065, 0, 0, 0, 0
"BUSLVMAI126", 0.20785, 1,    128.644, -150.8,     1.072, 2,    128.658,   29.2,    1.0722, 0, 0, 0, 0
"BUSLVMAI127", 0.20785, 1,    128.114,   88.8,    1.0676, 2,    128.129,  -91.2,    1.0677, 0, 0, 0, 0
"BUSLVMAI128", 0.20785, 1,    128.119, -151.0,    1.0677, 2,    128.139,   29.0,    1.0678, 0, 0, 0, 0
"BUSLVMAI129", 0.20785, 1,    128.607,  -31.0,    1.0717, 2,     128.62,  149.0,    1.0718, 0, 0, 0, 0
"BUSLVMAI130", 0.20785, 1,    128.706,  -30.9,    1.0725, 2,    128.721,  149.1,    1.0727, 0, 0, 0, 0
"BUSLVMAI131", 0.20785, 1,    128.223,  -31.1,    1.0685, 2,    128.247,  148.9,    1.0687, 0, 0, 0, 0
"BUSLVMAI132", 0.20785, 1,    128.605,  -31.0,    1.0717, 2,    128.618,  149.0,    1.0718, 0, 0, 0, 0
"BUSLVMAI133", 0.20785, 1,    128.123,   88.8,    1.0677, 2,    128.141,  -91.2,    1.0678, 0, 0, 0, 0
"BUSLVMAI134", 0.20785, 1,    127.999,   88.7,    1.0667, 2,    128.014,  -91.3,    1.0668, 0, 0, 0, 0
"BUSLVMAI135", 0.20785, 1,    128.097,   88.8,    1.0675, 2,    128.113,  -91.2,    1.0676, 0, 0, 0, 0
"BUSLVMAI136", 0.20785, 1,    128.385,  -31.1,    1.0699, 2,    128.409,  148.9,    1.0701, 0, 0, 0, 0
"BUSLVMAI137", 0.20785, 1,    128.436, -150.9,    1.0703, 2,     128.45,   29.1,    1.0704, 0, 0, 0, 0
"BUSLVMAI138", 0.20785, 1,    128.489, -150.9,    1.0707, 2,    128.511,   29.1,    1.0709, 0, 0, 0, 0
"BUSLVMAI139", 0.20785, 1,    128.419, -150.9,    1.0702, 2,    128.434,   29.1,    1.0703, 0, 0, 0, 0
"BUSLVMAI140", 0.20785, 1,    128.502,  -31.0,    1.0708, 2,    128.518,  149.0,     1.071, 0, 0, 0, 0
"BUSLVMAI141", 0.20785, 1,    128.644, -150.8,     1.072, 2,    128.659,   29.2,    1.0722, 0, 0, 0, 0
"BUSLVMAI142", 0.20785, 1,    128.477, -150.9,    1.0706, 2,    128.491,   29.1,    1.0708, 0, 0, 0, 0
"BUSLVMAI143", 0.20785, 1,    128.601, -150.8,    1.0717, 2,    128.616,   29.2,    1.0718, 0, 0, 0, 0
"BUSLVMAI144", 0.20785, 1,    128.112,   88.8,    1.0676, 2,    128.127,  -91.2,    1.0677, 0, 0, 0, 0
"BUSLVMAI145", 0.20785, 1,    128.666,  -30.9,    1.0722, 2,    128.682,  149.1,    1.0723, 0, 0, 0, 0
"BUSLVMAI146", 0.20785, 1,    128.636, -150.8,     1.072, 2,     128.65,   29.2,    1.0721, 0, 0, 0, 0
"BUSLVMAI147", 0.20785, 1,    128.189,  -31.1,    1.0682, 2,    128.203,  148.8,    1.0684, 0, 0, 0, 0
"BUSLVMAI148", 0.20785, 1,    128.069,   88.8,    1.0672, 2,    128.085,  -91.2,    1.0674, 0, 0, 0, 0
"BUSLVMAI149", 0.20785, 1,    128.487, -150.9,    1.0707, 2,      128.5,   29.1,    1.0708, 0, 0, 0, 0
"BUSLVMAI150", 0.20785, 1,    128.289,  -31.1,    1.0691, 2,     128.31,  148.9,    1.0692, 0, 0, 0, 0
"BUSLVMAI151", 0.20785, 1,    128.144, -151.0,    1.0679, 2,    128.158,   29.0,     1.068, 0, 0, 0, 0
"BUSLVMAI152", 0.20785, 1,    128.597,  -31.0,    1.0716, 2,    128.613,  149.0,    1.0718, 0, 0, 0, 0
"BUSLVMAI153", 0.20785, 1,    127.761,   88.7,    1.0647, 2,    127.777,  -91.3,    1.0648, 0, 0, 0, 0
"BUSLVMAI154", 0.20785, 1,    128.116,   88.8,    1.0676, 2,    128.133,  -91.2,    1.0678, 0, 0, 0, 0
"BUSLVMAI155", 0.20785, 1,    128.425,  -31.1,    1.0702, 2,     128.44,  148.9,    1.0703, 0, 0, 0, 0
"BUSLVMAI156", 0.20785, 1,    128.608,  -31.0,    1.0717, 2,    128.622,  149.0,    1.0718, 0, 0, 0, 0
"BUSLVMAI157", 0.20785, 1,    128.282,  -31.1,     1.069, 2,    128.298,  148.9,    1.0692, 0, 0, 0, 0
"BUSLVMAI158", 0.20785, 1,    128.608, -150.8,    1.0717, 2,    128.621,   29.2,    1.0718, 0, 0, 0, 0
"BUSLVMAI159", 0.20785, 1,    128.606, -150.8,    1.0717, 2,    128.619,   29.2,    1.0718, 0, 0, 0, 0
"BUSLVMAI160", 0.20785, 1,    128.421,  -31.0,    1.0702, 2,    128.438,  149.0,    1.0703, 0, 0, 0, 0
"BUSLVMAI161", 0.20785, 1,     128.47,  -31.0,    1.0706, 2,    128.494,  149.0,    1.0708, 0, 0, 0, 0
"BUSLVMAI162", 0.20785, 1,    128.472,  -31.0,    1.0706, 2,    128.489,  149.0,    1.0707, 0, 0, 0, 0
"BUSLVMAI163", 0.20785, 1,    128.597,  -31.0,    1.0716, 2,    128.613,  149.0,    1.0718, 0, 0, 0, 0
"BUSLVMAI164", 0.20785, 1,    128.728,  -30.9,    1.0727, 2,    128.741,  149.1,    1.0728, 0, 0, 0, 0
"BUSLVMAI165", 0.20785, 1,    128.261,  -31.1,    1.0688, 2,    128.299,  148.9,    1.0692, 0, 0, 0, 0
"BUSLVMAI166", 0.20785, 1,    128.473,  -31.0,    1.0706, 2,    128.498,  149.0,    1.0708, 0, 0, 0, 0
"BUSLVMAI167", 0.20785, 1,    127.955,   88.7,    1.0663, 2,     127.97,  -91.3,    1.0664, 0, 0, 0, 0
"BUSLVMAI168", 0.20785, 1,    128.044,   88.8,     1.067, 2,    128.059,  -91.2,    1.0672, 0, 0, 0, 0
"BUSLVMAI169", 0.20785, 1,    127.787,  -31.1,    1.0649, 2,    127.804,  148.9,     1.065, 0, 0, 0, 0
"BUSLVMAI170", 0.20785, 1,    128.601,  -31.0,    1.0717, 2,    128.616,  149.0,    1.0718, 0, 0, 0, 0
"BUSLVMAI171", 0.20785, 1,    128.335,  -31.0,    1.0695, 2,    128.382,  149.0,    1.0698, 0, 0, 0, 0
"BUSLVMAI172", 0.20785, 1,    127.919,   88.7,     1.066, 2,    127.933,  -91.3,    1.0661, 0, 0, 0, 0
"BUSLVMAI173", 0.20785, 1,    128.108,   88.8,    1.0676, 2,    128.124,  -91.2,    1.0677, 0, 0, 0, 0
"BUSLVMAI174", 0.20785, 1,    128.423,  -31.0,    1.0702, 2,    128.446,  149.0,    1.0704, 0, 0, 0, 0
"BUSLVMAI175", 0.20785, 1,    128.359,  -31.1,    1.0697, 2,    128.373,  148.9,    1.0698, 0, 0, 0, 0
"BUSLVMAI176", 0.20785, 1,    128.048,   88.8,    1.0671, 2,    128.061,  -91.2,    1.0672, 0, 0, 0, 0
"BUSLVMAI177", 0.20785, 1,    128.091,   88.8,    1.0674, 2,    128.104,  -91.2,    1.0675, 0, 0, 0, 0
"BUSLVMAI178", 0.20785, 1,    128.599, -150.8,    1.0717, 2,    128.613,   29.2,    1.0718, 0, 0, 0, 0
"BUSLVMAI179", 0.20785, 1,    128.555, -150.8,    1.0713, 2,    128.568,   29.2,    1.0714, 0, 0, 0, 0
"BUSLVMAI180", 0.20785, 1,    128.608,  -31.0,    1.0717, 2,    128.621,  149.0,    1.0718, 0, 0, 0, 0
"BUSLVMAI181", 0.20785, 1,    128.601,  -31.0,    1.0717, 2,    128.615,  149.0,    1.0718, 0, 0, 0, 0
"BUSLVMAI182", 0.20785, 1,    128.212,  -31.1,    1.0684, 2,    128.255,  148.9,    1.0688, 0, 0, 0, 0
"BUSLVMAI183", 0.20785, 1,    128.087,   88.8,    1.0674, 2,    128.101,  -91.2,    1.0675, 0, 0, 0, 0
"BUSLVMAI184", 0.20785, 1,    128.708,  -30.9,    1.0726, 2,    128.721,  149.1,    1.0727, 0, 0, 0, 0
"BUSLVMAI185", 0.20785, 1,    128.445, -150.9,    1.0704, 2,    128.458,   29.1,    1.0705, 0, 0, 0, 0
"BUSLVMAI186", 0.20785, 1,     128.12,   88.8,    1.0677, 2,    128.136,  -91.2,    1.0678, 0, 0, 0, 0
"BUSLVMAI187", 0.20785, 1,    128.075,   88.8,    1.0673, 2,    128.088,  -91.2,    1.0674, 0, 0, 0, 0
"BUSLVMAI188", 0.20785, 1,    128.612, -150.8,    1.0718, 2,    128.628,   29.2,    1.0719, 0, 0, 0, 0
"BUSLVMAI189", 0.20785, 1,    128.603,  -31.0,    1.0717, 2,     128.62,  149.0,    1.0718, 0, 0, 0, 0
"BUSLVMAI190", 0.20785, 1,    128.607, -150.8,    1.0717, 2,    128.624,   29.2,    1.0719, 0, 0, 0, 0
"BUSLVMAI191", 0.20785, 1,    128.117,   88.8,    1.0676, 2,    128.133,  -91.2,    1.0678, 0, 0, 0, 0
"BUSLVMAI192", 0.20785, 1,    128.595,  -31.0,    1.0716, 2,    128.611,  149.0,    1.0718, 0, 0, 0, 0
"BUSLVMAI193", 0.20785, 1,      128.6,  -31.0,    1.0717, 2,    128.617,  149.0,    1.0718, 0, 0, 0, 0
"BUSLVMAI194", 0.20785, 1,    128.084,   88.8,    1.0674, 2,      128.1,  -91.2,    1.0675, 0, 0, 0, 0
"BUSLVMAI195", 0.20785, 1,    128.119,   88.8,    1.0677, 2,    128.134,  -91.2,    1.0678, 0, 0, 0, 0
"BUSLVMAI196", 0.20785, 1,    128.587, -150.8,    1.0716, 2,    128.603,   29.2,    1.0717, 0, 0, 0, 0
"BUSLVMAI197", 0.20785, 1,    128.571, -150.8,    1.0714, 2,    128.585,   29.2,    1.0715, 0, 0, 0, 0
"BUSLVMAI198", 0.20785, 1,    128.588, -150.8,    1.0716, 2,    128.604,   29.2,    1.0717, 0, 0, 0, 0
"BUSLVMAI199", 0.20785, 1,    128.589, -150.8,    1.0716, 2,    128.604,   29.2,    1.0717, 0, 0, 0, 0
"BUSLVMAI200", 0.20785, 1,    128.593,  -31.0,    1.0716, 2,    128.609,  149.0,    1.0717, 0, 0, 0, 0
...
